Replication/results/Show_Progress_output.txt

####################################################################################################
#  LOAD FLOW ON ALL BUSES AND BRANCHES  (From node -> To node; no setting is changed)
####################################################################################################

======================================================================================================================
LOAD FLOW ON ALL BUSES AND BRANCHES
======================================================================================================================
Project: IEEE13 Yousaf2022 Replication   Study case: Study with Substation Transformer
AC load flow, unbalanced 3-phase (ABC).  Grid at bus SubstationHV.  22 buses, 23 branch elements.

======================================================================================================================
LOAD FLOW, DG DISCONNECTED  -  BRANCH FLOWS  (From node -> To node, away from the grid)
======================================================================================================================
Values at the From node.  + : power / current flows From -> To;  - : it flows To -> From.
  From node    | To node | Branch                              | I a (A) | I b (A) | I c (A) | P (kW)  | Q (kvar) | Loss (kW) | Active power flows 
  -------------+---------+-------------------------------------+---------+---------+---------+---------+----------+-----------+--------------------
  SubstationHV | 650     | TrSubstation (transformer)          | +18.6   | +20.7   | +23.3   | +3618.2 | +2003.3  | 35.15     | SubstationHV -> 650
  650          | RG60    | Vreg A+B+C (regulator)              | +592.7  | +431.9  | +628.1  | +3583.0 | +1722.0  | 0.00      | 650 -> RG60        
  RG60         | 632     | LOHL650-632 (line)                  | +557.9  | +411.3  | +587.7  | +3583.0 | +1722.0  | 59.50     | RG60 -> 632        
  632          | 633     | LOHL632-633 (line)                  | +81.0   | +60.6   | +62.8   | +406.3  | +301.1   | 0.91      | 632 -> 633         
  632          | 645     | LOHL632-645 (line)                  | -       | +143.1  | +66.1   | +420.9  | +269.8   | 3.38      | 632 -> 645         
  632          | nDL1    | LOHL632-671start (line)             | +478.1  | +212.2  | +475.7  | +2696.3 | +958.1   | 6.47      | 632 -> nDL1        
  633          | 634     | XFM-1 (transformer)                 | +81.0   | +60.6   | +62.8   | +405.4  | +299.9   | 5.40      | 633 -> 634         
  645          | 646     | LOHL645-646 (line)                  | -       | +66.1   | +66.1   | +247.6  | +142.2   | 0.56      | 645 -> 646         
  nDL1         | nDL2    | s2LOHL632-671 (line)                | +476.5  | +206.5  | +464.8  | +2649.8 | +914.5   | 6.28      | nDL1 -> nDL2       
  nDL2         | nDL     | s3LOHL632-671 (line)                | +474.9  | +200.8  | +453.8  | +2603.5 | +871.4   | 6.10      | nDL2 -> nDL        
  nDL          | nDL4    | s4LOHL632-671 (line)                | +473.3  | +195.2  | +442.9  | +2557.4 | +829.0   | 5.93      | nDL -> nDL4        
  nDL          | DL      | LDL (line)                          | +1.6    | +6.0    | +11.3   | +40.0   | +23.2    | 0.00      | nDL -> DL          
  nDL4         | nDL5    | s5LOHL632-671 (line)                | +471.6  | +189.6  | +431.8  | +2511.5 | +787.0   | 5.76      | nDL4 -> nDL5       
  nDL5         | 671     | LOHL632-671end (line)               | +470.0  | +184.0  | +420.8  | +2465.7 | +745.6   | 5.61      | nDL5 -> 671        
  671          | 684     | LOHL671-684 (line)                  | +63.0   | -       | +71.1   | +290.0  | +67.1    | 0.58      | 671 -> 684         
  671          | 680     | LOHL671-680 (line)                  | 0.0     | 0.0     | 0.0     | +0.0    | -0.0     | 0.00      | no flow            
  671          | 692     | Switch (switch)                     | +229.7  | +71.5   | +178.8  | +1015.1 | +0.7     | 0.00      | 671 -> 692         
  684          | 652     | LC684-652A (line)                   | +63.0   | -       | -       | +123.9  | +82.9    | 0.72      | 684 -> 652         
  684          | 611     | LOHL684-611 (line)                  | -       | -       | +71.1   | +165.5  | -16.3    | 0.39      | 684 -> 611         
  692          | 675     | LC692-675 (line)                    | +205.9  | +71.5   | +124.5  | +847.4  | -148.3   | 4.38      | 692 -> 675         
  692          | DG      | 2-Winding Transformer (transformer) | 0.0     | 0.0     | 0.0     | +0.0    | +0.0     | 0.00      | no flow            

Total branch losses: 147.1 kW.  Branches where the active power flows towards the grid: none.

======================================================================================================================
LOAD FLOW, DG DISCONNECTED  -  BUSES  (voltage per phase; load, capacitor and generation at the bus)
======================================================================================================================
  Bus          | Un (kV) | Va (pu) | Va (kV) | ang a  | Vb (pu) | Vb (kV) | ang b   | Vc (pu) | Vc (kV) | ang c  | Load P (kW) | Load Q (kvar) | Cap Q supplied (kvar) | Source P (kW) | Source Q (kvar)
  -------------+---------+---------+---------+--------+---------+---------+---------+---------+---------+--------+-------------+---------------+-----------------------+---------------+----------------
  SubstationHV | 115.00  | 1.0000  | 66.3953 | 0.00   | 1.0000  | 66.3956 | -120.00 | 1.0000  | 66.3949 | 120.00 | -           | -             | -                     | 3618.2        | 2003.3         
  650          | 4.16    | 0.9981  | 2.3973  | -33.34 | 1.0170  | 2.4426  | -152.65 | 0.9979  | 2.3967  | 86.35  | -           | -             | -                     | -             | -              
  RG60         | 4.16    | 1.0605  | 2.5471  | -33.34 | 1.0679  | 2.5648  | -152.65 | 1.0665  | 2.5615  | 86.35  | -           | -             | -                     | -             | -              
  632          | 4.16    | 1.0187  | 2.4466  | -35.92 | 1.0616  | 2.5497  | -154.32 | 1.0142  | 2.4358  | 84.22  | -           | -             | -                     | -             | -              
  633          | 4.16    | 1.0158  | 2.4396  | -35.93 | 1.0588  | 2.5429  | -154.38 | 1.0124  | 2.4315  | 84.18  | -           | -             | -                     | -             | -              
  645          | 4.16    | -       | -       | -      | 1.0540  | 2.5314  | -154.44 | 1.0106  | 2.4273  | 84.30  | 170.0       | 125.0         | -                     | -             | -              
  nDL1         | 4.16    | 1.0133  | 2.4337  | -36.38 | 1.0632  | 2.5536  | -154.43 | 1.0073  | 2.4192  | 83.90  | 40.0        | 23.2          | -                     | -             | -              
  634          | 0.48    | 0.9918  | 0.2749  | -36.60 | 1.0406  | 0.2884  | -154.82 | 0.9936  | 0.2754  | 83.69  | 400.0       | 290.0         | -                     | -             | -              
  646          | 4.16    | -       | -       | -      | 1.0522  | 2.5272  | -154.52 | 1.0085  | 2.4223  | 84.34  | 247.0       | 141.8         | -                     | -             | -              
  nDL2         | 4.16    | 1.0080  | 2.4210  | -36.83 | 1.0649  | 2.5576  | -154.55 | 1.0005  | 2.4030  | 83.59  | 40.0        | 23.2          | -                     | -             | -              
  nDL          | 4.16    | 1.0028  | 2.4084  | -37.29 | 1.0666  | 2.5617  | -154.65 | 0.9939  | 2.3872  | 83.28  | -           | -             | -                     | -             | -              
  nDL4         | 4.16    | 0.9977  | 2.3961  | -37.76 | 1.0684  | 2.5661  | -154.76 | 0.9875  | 2.3718  | 82.98  | 40.0        | 23.2          | -                     | -             | -              
  DL           | 4.16    | 1.0028  | 2.4084  | -37.29 | 1.0666  | 2.5617  | -154.65 | 0.9939  | 2.3872  | 83.28  | 40.0        | 23.2          | -                     | -             | -              
  nDL5         | 4.16    | 0.9926  | 2.3841  | -38.23 | 1.0703  | 2.5706  | -154.86 | 0.9813  | 2.3569  | 82.68  | 40.0        | 23.2          | -                     | -             | -              
  671          | 4.16    | 0.9877  | 2.3722  | -38.70 | 1.0722  | 2.5752  | -154.95 | 0.9753  | 2.3423  | 82.38  | 1155.0      | 660.0         | -                     | -             | -              
  684          | 4.16    | 0.9859  | 2.3679  | -38.72 | -       | -       | -       | 0.9732  | 2.3373  | 82.27  | -           | -             | -                     | -             | -              
  680          | 4.16    | 0.9877  | 2.3722  | -38.70 | 1.0722  | 2.5752  | -154.95 | 0.9753  | 2.3423  | 82.38  | -           | -             | -                     | -             | -              
  692          | 4.16    | 0.9877  | 2.3722  | -38.70 | 1.0722  | 2.5752  | -154.95 | 0.9753  | 2.3423  | 82.38  | 167.8       | 149.0         | -                     | -             | -              
  652          | 4.16    | 0.9811  | 2.3564  | -38.64 | -       | -       | -       | -       | -       | -      | 123.2       | 82.8          | -                     | -             | -              
  611          | 4.16    | -       | -       | -      | -       | -       | -       | 0.9712  | 2.3327  | 82.13  | 165.1       | 77.7          | 94.3                  | -             | -              
  675          | 4.16    | 0.9809  | 2.3558  | -39.06 | 1.0767  | 2.5859  | -155.12 | 0.9729  | 2.3367  | 82.49  | 843.0       | 462.0         | 613.6                 | -             | -              
  DG           | 0.69    | 1.0103  | 0.4025  | 174.64 | 1.0376  | 0.4133  | 52.23   | 0.9868  | 0.3931  | -67.95 | -           | -             | -                     | -             | -              

Voltages are phase-to-neutral.  Lowest feeder voltage 0.9712 pu at 611 phase c, highest 1.0767 pu at 675 phase b.
Total load 3471.1 kW / 2104.2 kvar; total branch losses 147.1 kW.
Grid supplies P 3618.2 kW, Q 2003.3 kvar.
Power balance at every bus (branches + loads + capacitors - sources): largest mismatch 0.02 kW/kvar at 684.

======================================================================================================================
LOAD FLOW, DG CONNECTED (4.05 MVA at 692)  -  BRANCH FLOWS  (From node -> To node, away from the grid)
======================================================================================================================
Values at the From node.  + : power / current flows From -> To;  - : it flows To -> From.
  From node    | To node | Branch                              | I a (A) | I b (A) | I c (A) | P (kW)  | Q (kvar) | Loss (kW) | Active power flows 
  -------------+---------+-------------------------------------+---------+---------+---------+---------+----------+-----------+--------------------
  SubstationHV | 650     | TrSubstation (transformer)          | -9.9    | +8.2    | +11.2   | +310.3  | +1900.6  | 7.91      | SubstationHV -> 650
  650          | RG60    | Vreg A+B+C (regulator)              | +281.2  | -195.1  | +304.5  | +302.3  | +1837.3  | 0.00      | 650 -> RG60        
  RG60         | 632     | LOHL650-632 (line)                  | +264.6  | -185.8  | +284.9  | +302.3  | +1837.3  | 14.02     | RG60 -> 632        
  632          | 633     | LOHL632-633 (line)                  | +78.8   | +60.3   | +61.3   | +406.1  | +300.6   | 0.88      | 632 -> 633         
  632          | 645     | LOHL632-645 (line)                  | -       | +143.2  | +66.7   | +425.6  | +272.5   | 3.39      | 632 -> 645         
  632          | nDL1    | LOHL632-671start (line)             | +210.3  | -233.3  | -179.3  | -543.3  | +1220.6  | 2.02      | nDL1 -> 632        
  633          | 634     | XFM-1 (transformer)                 | +78.8   | +60.3   | +61.3   | +405.2  | +299.5   | 5.18      | 633 -> 634         
  645          | 646     | LOHL645-646 (line)                  | -       | +66.7   | +66.7   | +252.2  | +144.9   | 0.57      | 645 -> 646         
  nDL1         | nDL2    | s2LOHL632-671 (line)                | +209.5  | -236.9  | -174.2  | -585.3  | +1191.8  | 2.00      | nDL2 -> nDL1       
  nDL2         | nDL     | s3LOHL632-671 (line)                | +208.7  | -240.6  | -169.7  | -627.3  | +1163.0  | 1.98      | nDL -> nDL2        
  nDL          | nDL4    | s4LOHL632-671 (line)                | +207.9  | -244.4  | -165.9  | -669.3  | +1134.2  | 1.97      | nDL4 -> nDL        
  nDL          | DL      | LDL (line)                          | +1.6    | +5.9    | +11.0   | +40.0   | +23.2    | 0.00      | nDL -> DL          
  nDL4         | nDL5    | s5LOHL632-671 (line)                | -207.1  | -248.2  | -162.7  | -711.3  | +1105.4  | 1.98      | nDL5 -> nDL4       
  nDL5         | 671     | LOHL632-671end (line)               | -206.3  | -252.2  | -160.2  | -753.3  | +1076.7  | 1.98      | 671 -> nDL5        
  671          | 684     | LOHL671-684 (line)                  | +65.9   | -       | +71.3   | +307.6  | +71.0    | 0.60      | 671 -> 684         
  671          | 680     | LOHL671-680 (line)                  | 0.0     | 0.0     | 0.0     | +0.0    | -0.0     | 0.00      | no flow            
  671          | 692     | Switch (switch)                     | -230.5  | -392.8  | -287.5  | -2217.8 | +340.1   | 0.00      | 692 -> 671         
  684          | 652     | LC684-652A (line)                   | +65.9   | -       | -       | +135.7  | +90.8    | 0.79      | 684 -> 652         
  684          | 611     | LOHL684-611 (line)                  | -       | -       | +71.3   | +171.3  | -20.3    | 0.39      | 684 -> 611         
  692          | 675     | LC692-675 (line)                    | +196.8  | +71.6   | +119.9  | +847.0  | -181.4   | 3.96      | 692 -> 675         
  692          | DG      | 2-Winding Transformer (transformer) | -430.8  | -421.7  | -455.3  | -3240.0 | +365.8   | 0.00      | DG -> 692          

Total branch losses: 49.6 kW.  Branches where the active power flows towards the grid: 632 -> nDL1, nDL1 -> nDL2, nDL2 -> nDL, nDL -> nDL4, nDL4 -> nDL5, nDL5 -> 671, 671 -> 692, 692 -> DG.

======================================================================================================================
LOAD FLOW, DG CONNECTED (4.05 MVA at 692)  -  BUSES  (voltage per phase; load, capacitor and generation at the bus)
======================================================================================================================
  Bus          | Un (kV) | Va (pu) | Va (kV) | ang a   | Vb (pu) | Vb (kV) | ang b   | Vc (pu) | Vc (kV) | ang c  | Load P (kW) | Load Q (kvar) | Cap Q supplied (kvar) | Source P (kW) | Source Q (kvar)
  -------------+---------+---------+---------+---------+---------+---------+---------+---------+---------+--------+-------------+---------------+-----------------------+---------------+----------------
  SubstationHV | 115.00  | 1.0000  | 66.3953 | 0.00    | 1.0000  | 66.3955 | -120.00 | 1.0000  | 66.3951 | 120.00 | -           | -             | -                     | 310.3         | 1900.6         
  650          | 4.16    | 1.0084  | 2.4220  | -30.25  | 1.0200  | 2.4498  | -149.62 | 1.0057  | 2.4155  | 89.66  | -           | -             | -                     | -             | -              
  RG60         | 4.16    | 1.0715  | 2.5734  | -30.25  | 1.0710  | 2.5723  | -149.62 | 1.0748  | 2.5815  | 89.66  | -           | -             | -                     | -             | -              
  632          | 4.16    | 1.0482  | 2.5176  | -30.64  | 1.0640  | 2.5554  | -149.06 | 1.0361  | 2.4886  | 89.95  | -           | -             | -                     | -             | -              
  633          | 4.16    | 1.0454  | 2.5108  | -30.64  | 1.0611  | 2.5485  | -149.13 | 1.0344  | 2.4845  | 89.91  | -           | -             | -                     | -             | -              
  645          | 4.16    | -       | -       | -       | 1.0563  | 2.5371  | -149.19 | 1.0325  | 2.4799  | 90.03  | 170.0       | 125.0         | -                     | -             | -              
  nDL1         | 4.16    | 1.0457  | 2.5115  | -30.71  | 1.0654  | 2.5588  | -148.81 | 1.0313  | 2.4770  | 90.06  | 40.0        | 23.2          | -                     | -             | -              
  634          | 0.48    | 1.0221  | 0.2833  | -31.28  | 1.0430  | 0.2890  | -149.57 | 1.0161  | 0.2816  | 89.45  | 400.0       | 290.0         | -                     | -             | -              
  646          | 4.16    | -       | -       | -       | 1.0546  | 2.5328  | -149.27 | 1.0304  | 2.4749  | 90.07  | 251.6       | 144.4         | -                     | -             | -              
  nDL2         | 4.16    | 1.0432  | 2.5054  | -30.79  | 1.0669  | 2.5624  | -148.54 | 1.0266  | 2.4657  | 90.18  | 40.0        | 23.2          | -                     | -             | -              
  nDL          | 4.16    | 1.0407  | 2.4995  | -30.86  | 1.0685  | 2.5663  | -148.28 | 1.0221  | 2.4549  | 90.31  | -           | -             | -                     | -             | -              
  nDL4         | 4.16    | 1.0382  | 2.4936  | -30.93  | 1.0702  | 2.5703  | -148.01 | 1.0177  | 2.4444  | 90.45  | 40.0        | 23.2          | -                     | -             | -              
  DL           | 4.16    | 1.0407  | 2.4995  | -30.86  | 1.0685  | 2.5663  | -148.28 | 1.0221  | 2.4549  | 90.31  | 40.0        | 23.2          | -                     | -             | -              
  nDL5         | 4.16    | 1.0358  | 2.4878  | -31.00  | 1.0720  | 2.5746  | -147.74 | 1.0135  | 2.4342  | 90.59  | 40.0        | 23.2          | -                     | -             | -              
  671          | 4.16    | 1.0334  | 2.4820  | -31.07  | 1.0738  | 2.5791  | -147.47 | 1.0094  | 2.4244  | 90.75  | 1155.0      | 660.0         | -                     | -             | -              
  684          | 4.16    | 1.0315  | 2.4774  | -31.10  | -       | -       | -       | 1.0074  | 2.4195  | 90.64  | -           | -             | -                     | -             | -              
  680          | 4.16    | 1.0334  | 2.4820  | -31.07  | 1.0738  | 2.5791  | -147.47 | 1.0094  | 2.4244  | 90.75  | -           | -             | -                     | -             | -              
  692          | 4.16    | 1.0334  | 2.4820  | -31.07  | 1.0738  | 2.5791  | -147.47 | 1.0094  | 2.4244  | 90.75  | 175.2       | 155.6         | -                     | -             | -              
  652          | 4.16    | 1.0265  | 2.4654  | -31.01  | -       | -       | -       | -       | -       | -      | 134.9       | 90.6          | -                     | -             | -              
  611          | 4.16    | -       | -       | -       | -       | -       | -       | 1.0055  | 2.4150  | 90.50  | 170.9       | 80.4          | 101.1                 | -             | -              
  675          | 4.16    | 1.0271  | 2.4669  | -31.41  | 1.0781  | 2.5893  | -147.63 | 1.0072  | 2.4191  | 90.83  | 843.0       | 462.0         | 646.3                 | -             | -              
  DG           | 0.69    | 1.0302  | 0.4104  | -172.43 | 1.0390  | 0.4139  | 67.08   | 1.0269  | 0.4091  | -53.10 | -           | -             | -                     | 3240.0        | 0.0            

Voltages are phase-to-neutral.  Lowest feeder voltage 1.0055 pu at 611 phase c, highest 1.0781 pu at 675 phase b.
Total load 3500.6 kW / 2124.1 kvar; total branch losses 49.6 kW.
Grid supplies P 310.3 kW, Q 1900.6 kvar.
DG supplies P 3240.0 kW, Q 0.0 kvar.
Power balance at every bus (branches + loads + capacitors - sources): largest mismatch 0.03 kW/kvar at 684.

======================================================================================================================
EFFECT OF THE DG ON THE BRANCH FLOWS  (P at the From node, kW)
======================================================================================================================
  From node    | To node | P DG out (kW) | P DG in (kW) | Change (kW) | Note                 
  -------------+---------+---------------+--------------+-------------+----------------------
  SubstationHV | 650     | +3618.2       | +310.3       | -3307.9     |                      
  650          | RG60    | +3583.0       | +302.3       | -3280.7     |                      
  RG60         | 632     | +3583.0       | +302.3       | -3280.7     |                      
  632          | 633     | +406.3        | +406.1       | -0.3        |                      
  632          | 645     | +420.9        | +425.6       | +4.6        |                      
  632          | nDL1    | +2696.3       | -543.3       | -3239.6     | REVERSED by the DG   
  633          | 634     | +405.4        | +405.2       | -0.2        |                      
  645          | 646     | +247.6        | +252.2       | +4.6        |                      
  nDL1         | nDL2    | +2649.8       | -585.3       | -3235.1     | REVERSED by the DG   
  nDL2         | nDL     | +2603.5       | -627.3       | -3230.9     | REVERSED by the DG   
  nDL          | nDL4    | +2557.4       | -669.3       | -3226.7     | REVERSED by the DG   
  nDL          | DL      | +40.0         | +40.0        | -0.0        |                      
  nDL4         | nDL5    | +2511.5       | -711.3       | -3222.8     | REVERSED by the DG   
  nDL5         | 671     | +2465.7       | -753.3       | -3219.0     | REVERSED by the DG   
  671          | 684     | +290.0        | +307.6       | +17.6       |                      
  671          | 680     | +0.0          | +0.0         | +0.0        |                      
  671          | 692     | +1015.1       | -2217.8      | -3233.0     | REVERSED by the DG   
  684          | 652     | +123.9        | +135.7       | +11.7       |                      
  684          | 611     | +165.5        | +171.3       | +5.8        |                      
  692          | 675     | +847.4        | +847.0       | -0.4        |                      
  692          | DG      | +0.0          | -3240.0      | -3240.0     | carries the DG output

Saved: C:\Users\Rabin\Desktop\Digsilent_project - TWIST AND TURN\Replication\results\database  (7_/8_BranchFlow_*.csv, 9_/10_BusLoadFlow_*.csv, LoadFlow_AllBuses_Report.txt)

####################################################################################################
#  STAGE 1 - LOAD-FLOW AND SHORT-CIRCUIT DATABASE  (no relay or fuse setting is changed)
####################################################################################################

==============================================================================================================
0. MODEL, REFERENCE DIRECTIONS AND OPEN POINTS (before any calculation)
==============================================================================================================
Project: IEEE13 Yousaf2022 Replication   Study case: Study with Substation Transformer
Load flow: AC unbalanced, 3-phase (ABC).  Short circuit: complete method (pre-fault load flow), initial symmetrical current Ikss.

Reference direction of the reclosers (+ = forward = away from the grid):
  Device | Relay units in the model                         | Relay terminal | Measured element | Forward =   | Line distance from the grid        
  -------+--------------------------------------------------+----------------+------------------+-------------+------------------------------------
  R1     | R1 Delayed, R1 Fast                              | RG60           | LOHL650-632      | RG60 -> 632 | 0 (relay end) / 2000 (other end)   
  R2     | R2 Delayed, R2 Fast, R2 Rev Delayed, R2 Rev Fast | 671            | LOHL632-671end   | nDL5 -> 671 | 4000 (relay end) / 3667 (other end)
R2 sits at the 671 end of line 632-671. PowerFactory counts current positive from the terminal into the element, i.e. 671 -> 632 for R2, so R2's PowerFactory values are multiplied by -1 to get the forward reference 632 -> 671. R1's values are used as they are.

Data taken from the paper (Section IV-A, Table I) as found in the model:
  DG: synchronous, 4.05 MVA / 0.69 kV at node 692 through a 4.16/0.69 kV transformer, uk = 15 % (Dyn5)
  Table I: xd 1.400, xq 1.372, xd' 0.231, xq' 0.800, xd'' 0.118, xq'' 0.118, xl 0.050, rstr 0.0014 pu
Open points - values the paper does NOT give, with what the model uses (nothing was invented here):
  1. Source: the paper gives no source impedance. Model: External Grid 115 kV, Sk'' = 100000 MVA, behind the 5 MVA 115/4.16 kV substation transformer, uk = 8.06 % (IEEE 13-node benchmark data).
  2. DG operating point for the load flow: not in the paper. Model: P = 3.24 MW, voltage control (constv) at 1.00 pu; Q follows from the load flow.
  3. Relay / CT reference direction: not in the paper. Defined above from the paper's use of R2 (forward for faults at 671 and beyond).
  4. Short-circuit method (IEC 60909 or complete): not in the paper. Complete method used.
  5. 'Farthest node' of each protection section: not listed in the paper. Taken from the model's line lengths.
  6. Fault location in the upstream section 632-671: the distributed-load lateral 'DL' at the middle of the line.
  7. Regulator taps (fixed, from the model): VregA +10, VregB +8, VregC +11.

==============================================================================================================
1. LOAD FLOW WITHOUT DG  (CASE A - DG DISCONNECTED)
==============================================================================================================
  Device | Current (A) | Sign | Direction | P (kW) | Q (kvar) | I per phase A / B / C (A) | P per phase (kW)        | Voltage at the relay (pu)
  -------+-------------+------+-----------+--------+----------+---------------------------+-------------------------+--------------------------
  R1     | +587.7      | +    | forward   | 3583.0 | 1722.0   | +557.9 / +411.3 / +587.7  | 1247.1 / 985.9 / 1350.1 | 1.0605 / 1.0679 / 1.0665 
  R2     | +470.0      | +    | forward   | 2460.1 | 727.9    | +470.0 / +184.0 / +420.8  | 1036.8 / 467.7 / 955.6  | 0.9877 / 1.0722 / 0.9753 
Current = largest phase current; its sign and the direction follow the total active power in the forward reference. P and Q are positive in the forward direction.

==============================================================================================================
2. LOAD FLOW WITH DG  (CASE B - DG CONNECTED)
==============================================================================================================
  Device | Current (A) | Sign | Direction | P (kW) | Q (kvar) | I per phase A / B / C (A) | P per phase (kW)       | Voltage at the relay (pu)
  -------+-------------+------+-----------+--------+----------+---------------------------+------------------------+--------------------------
  R1     | +284.9      | +    | forward   | 302.3  | 1837.3   | +264.6 / -185.8 / +284.9  | 169.3 / -74.7 / 207.8  | 1.0715 / 1.0710 / 1.0748 
  R2     | -252.2      | -    | reverse   | -755.3 | 1071.1   | -206.3 / -252.2 / -160.2  | -4.7 / -621.2 / -129.4 | 1.0334 / 1.0738 / 1.0094 
Current = largest phase current; its sign and the direction follow the total active power in the forward reference. P and Q are positive in the forward direction.
NOTE: R1 is forward in total, but phase B carries active power in the opposite direction (unbalanced feeder).

==============================================================================================================
LOAD FLOW COMPARISON
==============================================================================================================
  Device | Without DG (A) | With DG (A) | Change in magnitude (A) | Direction without DG | Direction with DG
  -------+----------------+-------------+-------------------------+----------------------+------------------
  R1     | +587.7         | +284.9      | -302.8                  | forward              | forward          
  R2     | +470.0         | -252.2      | -217.8                  | forward              | reverse          
The DG reverses the load current through R2: 2460 kW forward without DG, 755 kW towards 632 with DG.

==============================================================================================================
3. BUS VOLTAGE WITHOUT DG  (phase-to-ground)
==============================================================================================================
  Bus  | Phase | Voltage (kV) | Voltage (pu) | Angle (deg)
  -----+-------+--------------+--------------+------------
  650  | A     | 2.3973       | 0.9981       | -33.34     
  650  | B     | 2.4426       | 1.0170       | -152.65    
  650  | C     | 2.3967       | 0.9979       | 86.35      
  RG60 | A     | 2.5471       | 1.0605       | -33.34     
  RG60 | B     | 2.5648       | 1.0679       | -152.65    
  RG60 | C     | 2.5615       | 1.0665       | 86.35      
  632  | A     | 2.4466       | 1.0187       | -35.92     
  632  | B     | 2.5497       | 1.0616       | -154.32    
  632  | C     | 2.4358       | 1.0142       | 84.22      
  633  | A     | 2.4396       | 1.0158       | -35.93     
  633  | B     | 2.5429       | 1.0588       | -154.38    
  633  | C     | 2.4315       | 1.0124       | 84.18      
  634  | A     | 0.2749       | 0.9918       | -36.60     
  634  | B     | 0.2884       | 1.0406       | -154.82    
  634  | C     | 0.2754       | 0.9936       | 83.69      
  645  | B     | 2.5314       | 1.0540       | -154.44    
  645  | C     | 2.4273       | 1.0106       | 84.30      
  646  | B     | 2.5272       | 1.0522       | -154.52    
  646  | C     | 2.4223       | 1.0085       | 84.34      
  671  | A     | 2.3722       | 0.9877       | -38.70     
  671  | B     | 2.5752       | 1.0722       | -154.95    
  671  | C     | 2.3423       | 0.9753       | 82.38      
  692  | A     | 2.3722       | 0.9877       | -38.70     
  692  | B     | 2.5752       | 1.0722       | -154.95    
  692  | C     | 2.3423       | 0.9753       | 82.38      
  675  | A     | 2.3558       | 0.9809       | -39.06     
  675  | B     | 2.5859       | 1.0767       | -155.12    
  675  | C     | 2.3367       | 0.9729       | 82.49      
  680  | A     | 2.3722       | 0.9877       | -38.70     
  680  | B     | 2.5752       | 1.0722       | -154.95    
  680  | C     | 2.3423       | 0.9753       | 82.38      
  684  | A     | 2.3679       | 0.9859       | -38.72     
  684  | C     | 2.3373       | 0.9732       | 82.27      
  652  | A     | 2.3564       | 0.9811       | -38.64     
  611  | C     | 2.3327       | 0.9712       | 82.13      
  DL   | A     | 2.4084       | 1.0028       | -37.29     
  DL   | B     | 2.5617       | 1.0666       | -154.65    
  DL   | C     | 2.3872       | 0.9939       | 83.28      
  DG   | A     | 0.4025       | 1.0103       | 174.64     
  DG   | B     | 0.4133       | 1.0376       | 52.23      
  DG   | C     | 0.3931       | 0.9868       | -67.95     

==============================================================================================================
4. BUS VOLTAGE WITH DG  (phase-to-ground)
==============================================================================================================
  Bus  | Phase | Voltage (kV) | Voltage (pu) | Angle (deg)
  -----+-------+--------------+--------------+------------
  650  | A     | 2.4220       | 1.0084       | -30.25     
  650  | B     | 2.4498       | 1.0200       | -149.62    
  650  | C     | 2.4155       | 1.0057       | 89.66      
  RG60 | A     | 2.5734       | 1.0715       | -30.25     
  RG60 | B     | 2.5723       | 1.0710       | -149.62    
  RG60 | C     | 2.5815       | 1.0748       | 89.66      
  632  | A     | 2.5176       | 1.0482       | -30.64     
  632  | B     | 2.5554       | 1.0640       | -149.06    
  632  | C     | 2.4886       | 1.0361       | 89.95      
  633  | A     | 2.5108       | 1.0454       | -30.64     
  633  | B     | 2.5485       | 1.0611       | -149.13    
  633  | C     | 2.4845       | 1.0344       | 89.91      
  634  | A     | 0.2833       | 1.0221       | -31.28     
  634  | B     | 0.2890       | 1.0430       | -149.57    
  634  | C     | 0.2816       | 1.0161       | 89.45      
  645  | B     | 2.5371       | 1.0563       | -149.19    
  645  | C     | 2.4799       | 1.0325       | 90.03      
  646  | B     | 2.5328       | 1.0546       | -149.27    
  646  | C     | 2.4749       | 1.0304       | 90.07      
  671  | A     | 2.4820       | 1.0334       | -31.07     
  671  | B     | 2.5791       | 1.0738       | -147.47    
  671  | C     | 2.4244       | 1.0094       | 90.75      
  692  | A     | 2.4820       | 1.0334       | -31.07     
  692  | B     | 2.5791       | 1.0738       | -147.47    
  692  | C     | 2.4244       | 1.0094       | 90.75      
  675  | A     | 2.4669       | 1.0271       | -31.41     
  675  | B     | 2.5893       | 1.0781       | -147.63    
  675  | C     | 2.4191       | 1.0072       | 90.83      
  680  | A     | 2.4820       | 1.0334       | -31.07     
  680  | B     | 2.5791       | 1.0738       | -147.47    
  680  | C     | 2.4244       | 1.0094       | 90.75      
  684  | A     | 2.4774       | 1.0315       | -31.10     
  684  | C     | 2.4195       | 1.0074       | 90.64      
  652  | A     | 2.4654       | 1.0265       | -31.01     
  611  | C     | 2.4150       | 1.0055       | 90.50      
  DL   | A     | 2.4995       | 1.0407       | -30.86     
  DL   | B     | 2.5663       | 1.0685       | -148.28    
  DL   | C     | 2.4549       | 1.0221       | 90.31      
  DG   | A     | 0.4104       | 1.0302       | -172.43    
  DG   | B     | 0.4139       | 1.0390       | 67.08      
  DG   | C     | 0.4091       | 1.0269       | -53.10     

==============================================================================================================
VOLTAGE COMPARISON
==============================================================================================================
  Bus  | Phase | V without DG (kV) | V with DG (kV) | dV (kV) | V without DG (pu) | V with DG (pu)
  -----+-------+-------------------+----------------+---------+-------------------+---------------
  650  | A     | 2.3973            | 2.4220         | +0.0248 | 0.9981            | 1.0084        
  650  | B     | 2.4426            | 2.4498         | +0.0072 | 1.0170            | 1.0200        
  650  | C     | 2.3967            | 2.4155         | +0.0187 | 0.9979            | 1.0057        
  RG60 | A     | 2.5471            | 2.5734         | +0.0263 | 1.0605            | 1.0715        
  RG60 | B     | 2.5648            | 2.5723         | +0.0075 | 1.0679            | 1.0710        
  RG60 | C     | 2.5615            | 2.5815         | +0.0200 | 1.0665            | 1.0748        
  632  | A     | 2.4466            | 2.5176         | +0.0709 | 1.0187            | 1.0482        
  632  | B     | 2.5497            | 2.5554         | +0.0057 | 1.0616            | 1.0640        
  632  | C     | 2.4358            | 2.4886         | +0.0527 | 1.0142            | 1.0361        
  633  | A     | 2.4396            | 2.5108         | +0.0711 | 1.0158            | 1.0454        
  633  | B     | 2.5429            | 2.5485         | +0.0056 | 1.0588            | 1.0611        
  633  | C     | 2.4315            | 2.4845         | +0.0529 | 1.0124            | 1.0344        
  634  | A     | 0.2749            | 0.2833         | +0.0084 | 0.9918            | 1.0221        
  634  | B     | 0.2884            | 0.2890         | +0.0007 | 1.0406            | 1.0430        
  634  | C     | 0.2754            | 0.2816         | +0.0062 | 0.9936            | 1.0161        
  645  | B     | 2.5314            | 2.5371         | +0.0057 | 1.0540            | 1.0563        
  645  | C     | 2.4273            | 2.4799         | +0.0526 | 1.0106            | 1.0325        
  646  | B     | 2.5272            | 2.5328         | +0.0057 | 1.0522            | 1.0546        
  646  | C     | 2.4223            | 2.4749         | +0.0526 | 1.0085            | 1.0304        
  671  | A     | 2.3722            | 2.4820         | +0.1098 | 0.9877            | 1.0334        
  671  | B     | 2.5752            | 2.5791         | +0.0039 | 1.0722            | 1.0738        
  671  | C     | 2.3423            | 2.4244         | +0.0821 | 0.9753            | 1.0094        
  692  | A     | 2.3722            | 2.4820         | +0.1098 | 0.9877            | 1.0334        
  692  | B     | 2.5752            | 2.5791         | +0.0039 | 1.0722            | 1.0738        
  692  | C     | 2.3423            | 2.4244         | +0.0821 | 0.9753            | 1.0094        
  675  | A     | 2.3558            | 2.4669         | +0.1111 | 0.9809            | 1.0271        
  675  | B     | 2.5859            | 2.5893         | +0.0034 | 1.0767            | 1.0781        
  675  | C     | 2.3367            | 2.4191         | +0.0825 | 0.9729            | 1.0072        
  680  | A     | 2.3722            | 2.4820         | +0.1098 | 0.9877            | 1.0334        
  680  | B     | 2.5752            | 2.5791         | +0.0039 | 1.0722            | 1.0738        
  680  | C     | 2.3423            | 2.4244         | +0.0821 | 0.9753            | 1.0094        
  684  | A     | 2.3679            | 2.4774         | +0.1095 | 0.9859            | 1.0315        
  684  | C     | 2.3373            | 2.4195         | +0.0822 | 0.9732            | 1.0074        
  652  | A     | 2.3564            | 2.4654         | +0.1090 | 0.9811            | 1.0265        
  611  | C     | 2.3327            | 2.4150         | +0.0823 | 0.9712            | 1.0055        
  DL   | A     | 2.4084            | 2.4995         | +0.0911 | 1.0028            | 1.0407        
  DL   | B     | 2.5617            | 2.5663         | +0.0046 | 1.0666            | 1.0685        
  DL   | C     | 2.3872            | 2.4549         | +0.0677 | 0.9939            | 1.0221        
  DG   | A     | 0.4025            | 0.4104         | +0.0079 | 1.0103            | 1.0302        
  DG   | B     | 0.4133            | 0.4139         | +0.0006 | 1.0376            | 1.0390        
  DG   | C     | 0.3931            | 0.4091         | +0.0160 | 0.9868            | 1.0269        
Bus DG is the 0.69 kV generator terminal, 634 the 0.48 kV side of XFM-1; all other buses are 4.16 kV. Without DG the generator terminal is energised through its transformer, at no load.

==============================================================================================================
PHASES PRESENT AT EACH BUS (from the model's load flow) AND FAULT TYPES THAT DO NOT EXIST THERE
==============================================================================================================
  Bus | Phases present | Fault types not applicable
  ----+----------------+---------------------------
  632 | ABC            | -                         
  633 | ABC            | -                         
  634 | ABC            | -                         
  645 | BC             | LLL                       
  646 | BC             | LLL                       
  671 | ABC            | -                         
  692 | ABC            | -                         
  675 | ABC            | -                         
  680 | ABC            | -                         
  684 | AC             | LLL                       
  652 | A              | LLL, LLG, LL              
  611 | C              | LLL, LLG, LL              
  DL  | ABC            | -                         

==============================================================================================================
5. SHORT CIRCUIT WITHOUT DG  (CASE A - DG DISCONNECTED) - every fault, current through R1 and R2
==============================================================================================================
  Faulted bus | Fault type | Phases | Zf (ohm) | Fault current (A) | R1 current (A) | R1 sign | R1 direction | R2 current (A) | R2 sign | R2 direction
  ------------+------------+--------+----------+-------------------+----------------+---------+--------------+----------------+---------+-------------
  632         | LLL        | ABC    | 0        | 4735.2            | 4734.6         | +       | forward      | 0.5            | 0       | no current  
  632         | LLG        | AB     | 0        | 4422.7            | 4524.0         | +       | forward      | 396.0          | +       | forward     
  632         | LLG        | BC     | 0        | 4198.1            | 4268.9         | +       | forward      | 485.6          | +       | forward     
  632         | LLG        | AC     | 0        | 4186.9            | 4296.9         | +       | forward      | 160.5          | +       | forward     
  632         | LL         | AB     | 0        | 4148.7            | 4382.9         | +       | forward      | 409.2          | +       | forward     
  632         | LL         | BC     | 0        | 3903.1            | 4045.4         | +       | forward      | 479.3          | +       | forward     
  632         | LL         | AC     | 0        | 3947.5            | 4173.2         | +       | forward      | 218.4          | +       | forward     
  632         | LG         | A      | 0        | 3462.1            | 3555.0         | +       | forward      | 387.5          | +       | forward     
  632         | LG         | B      | 0        | 3492.7            | 3552.7         | +       | forward      | 475.3          | +       | forward     
  632         | LG         | C      | 0        | 3398.0            | 3505.7         | +       | forward      | 477.5          | +       | forward     
  632         | LG         | A      | 3        | 742.9             | 1237.1         | +       | forward      | 444.0          | +       | forward     
  632         | LG         | B      | 3        | 777.3             | 1149.9         | +       | forward      | 465.0          | +       | forward     
  632         | LG         | C      | 3        | 739.2             | 1265.8         | +       | forward      | 467.4          | +       | forward     
  633         | LLL        | ABC    | 0        | 4102.5            | 4162.2         | +       | forward      | 65.9           | +       | forward     
  633         | LLG        | AB     | 0        | 3805.5            | 3958.2         | +       | forward      | 399.4          | +       | forward     
  633         | LLG        | BC     | 0        | 3640.8            | 3742.7         | +       | forward      | 480.2          | +       | forward     
  633         | LLG        | AC     | 0        | 3640.8            | 3805.8         | +       | forward      | 162.3          | +       | forward     
  633         | LL         | AB     | 0        | 3562.9            | 3838.0         | +       | forward      | 411.9          | +       | forward     
  633         | LL         | BC     | 0        | 3361.2            | 3536.6         | +       | forward      | 475.8          | +       | forward     
  633         | LL         | AC     | 0        | 3440.0            | 3711.1         | +       | forward      | 206.5          | +       | forward     
  633         | LG         | A      | 0        | 3023.1            | 3162.2         | +       | forward      | 392.3          | +       | forward     
  633         | LG         | B      | 0        | 3055.0            | 3142.9         | +       | forward      | 473.1          | +       | forward     
  633         | LG         | C      | 0        | 2960.8            | 3116.8         | +       | forward      | 475.0          | +       | forward     
  633         | LG         | A      | 3        | 721.2             | 1214.8         | +       | forward      | 443.2          | +       | forward     
  633         | LG         | B      | 3        | 754.4             | 1125.1         | +       | forward      | 465.3          | +       | forward     
  633         | LG         | C      | 3        | 718.3             | 1244.4         | +       | forward      | 467.4          | +       | forward     
  634         | LLL        | ABC    | 0        | 15671.0           | 2034.2         | +       | forward      | 298.5          | +       | forward     
  634         | LLG        | AB     | 0        | 15046.1           | 1983.1         | +       | forward      | 410.0          | +       | forward     
  634         | LLG        | BC     | 0        | 14749.4           | 1894.6         | +       | forward      | 472.2          | +       | forward     
  634         | LLG        | AC     | 0        | 14601.8           | 1969.2         | +       | forward      | 302.8          | +       | forward     
  634         | LL         | AB     | 0        | 13479.0           | 1955.5         | +       | forward      | 417.6          | +       | forward     
  634         | LL         | BC     | 0        | 13250.0           | 1802.8         | +       | forward      | 470.7          | +       | forward     
  634         | LL         | AC     | 0        | 13195.9           | 1941.1         | +       | forward      | 325.8          | +       | forward     
  634         | LG         | A      | 0        | 13490.0           | 1822.7         | +       | forward      | 406.5          | +       | forward     
  634         | LG         | B      | 0        | 13811.9           | 1766.2         | +       | forward      | 470.2          | +       | forward     
  634         | LG         | C      | 0        | 13296.8           | 1825.5         | +       | forward      | 471.9          | +       | forward     
  634         | LG         | A      | 3        | 91.3              | 587.7          | +       | forward      | 469.8          | +       | forward     
  634         | LG         | B      | 3        | 95.8              | 587.7          | +       | forward      | 469.9          | +       | forward     
  634         | LG         | C      | 3        | 91.5              | 596.7          | +       | forward      | 470.0          | +       | forward     
  645         | LLG        | BC     | 0        | 3418.2            | 3527.9         | +       | forward      | 477.6          | +       | forward     
  645         | LL         | BC     | 0        | 3249.9            | 3423.2         | +       | forward      | 473.2          | +       | forward     
  645         | LG         | C      | 0        | 2702.2            | 2895.4         | +       | forward      | 474.9          | +       | forward     
  645         | LG         | B      | 0        | 2802.9            | 2906.5         | +       | forward      | 472.5          | +       | forward     
  645         | LG         | C      | 3        | 705.5             | 1234.4         | +       | forward      | 467.6          | +       | forward     
  645         | LG         | B      | 3        | 739.6             | 1109.8         | +       | forward      | 465.4          | +       | forward     
  646         | LLG        | BC     | 0        | 3112.2            | 3191.7         | +       | forward      | 474.8          | +       | forward     
  646         | LL         | BC     | 0        | 2936.5            | 3130.5         | +       | forward      | 471.0          | +       | forward     
  646         | LG         | C      | 0        | 2402.4            | 2632.2         | +       | forward      | 474.0          | +       | forward     
  646         | LG         | B      | 0        | 2496.2            | 2625.2         | +       | forward      | 471.5          | +       | forward     
  646         | LG         | C      | 3        | 686.2             | 1216.4         | +       | forward      | 467.8          | +       | forward     
  646         | LG         | B      | 3        | 719.5             | 1090.1         | +       | forward      | 465.6          | +       | forward     
  671         | LLL        | ABC    | 0        | 3390.1            | 3412.7         | +       | forward      | 3390.1         | +       | forward     
  671         | LLG        | AB     | 0        | 3179.1            | 3296.9         | +       | forward      | 3268.2         | +       | forward     
  671         | LLG        | BC     | 0        | 2922.3            | 3045.8         | +       | forward      | 2987.2         | +       | forward     
  671         | LLG        | AC     | 0        | 2927.1            | 3067.9         | +       | forward      | 2988.7         | +       | forward     
  671         | LL         | AB     | 0        | 2961.5            | 3211.7         | +       | forward      | 3165.3         | +       | forward     
  671         | LL         | BC     | 0        | 2724.6            | 2911.3         | +       | forward      | 2809.6         | +       | forward     
  671         | LL         | AC     | 0        | 2781.5            | 3030.3         | +       | forward      | 2927.6         | +       | forward     
  671         | LG         | A      | 0        | 2280.2            | 2413.9         | +       | forward      | 2395.2         | +       | forward     
  671         | LG         | B      | 0        | 2302.8            | 2433.4         | +       | forward      | 2381.8         | +       | forward     
  671         | LG         | C      | 0        | 2203.8            | 2371.3         | +       | forward      | 2297.5         | +       | forward     
  671         | LG         | A      | 3        | 667.9             | 1151.6         | +       | forward      | 1078.8         | +       | forward     
  671         | LG         | B      | 3        | 728.5             | 1101.6         | +       | forward      | 907.4          | +       | forward     
  671         | LG         | C      | 3        | 658.8             | 1176.9         | +       | forward      | 1032.2         | +       | forward     
  692         | LLL        | ABC    | 0        | 3390.1            | 3412.7         | +       | forward      | 3390.1         | +       | forward     
  692         | LLG        | AB     | 0        | 3179.1            | 3296.9         | +       | forward      | 3268.2         | +       | forward     
  692         | LLG        | BC     | 0        | 2922.3            | 3045.8         | +       | forward      | 2987.2         | +       | forward     
  692         | LLG        | AC     | 0        | 2927.1            | 3067.9         | +       | forward      | 2988.7         | +       | forward     
  692         | LL         | AB     | 0        | 2961.5            | 3211.7         | +       | forward      | 3165.3         | +       | forward     
  692         | LL         | BC     | 0        | 2724.6            | 2911.3         | +       | forward      | 2809.6         | +       | forward     
  692         | LL         | AC     | 0        | 2781.5            | 3030.3         | +       | forward      | 2927.6         | +       | forward     
  692         | LG         | A      | 0        | 2280.2            | 2413.9         | +       | forward      | 2395.2         | +       | forward     
  692         | LG         | B      | 0        | 2302.8            | 2433.4         | +       | forward      | 2381.8         | +       | forward     
  692         | LG         | C      | 0        | 2203.8            | 2371.3         | +       | forward      | 2297.5         | +       | forward     
  692         | LG         | A      | 3        | 667.9             | 1151.6         | +       | forward      | 1078.8         | +       | forward     
  692         | LG         | B      | 3        | 728.5             | 1101.6         | +       | forward      | 907.4          | +       | forward     
  692         | LG         | C      | 3        | 658.8             | 1176.9         | +       | forward      | 1032.2         | +       | forward     
  675         | LLL        | ABC    | 0        | 3151.2            | 3202.2         | +       | forward      | 3174.3         | +       | forward     
  675         | LLG        | AB     | 0        | 2990.2            | 3126.3         | +       | forward      | 3093.2         | +       | forward     
  675         | LLG        | BC     | 0        | 2784.4            | 2925.8         | +       | forward      | 2856.5         | +       | forward     
  675         | LLG        | AC     | 0        | 2747.1            | 2912.4         | +       | forward      | 2825.9         | +       | forward     
  675         | LL         | AB     | 0        | 2769.3            | 3034.5         | +       | forward      | 2984.8         | +       | forward     
  675         | LL         | BC     | 0        | 2568.2            | 2771.6         | +       | forward      | 2661.3         | +       | forward     
  675         | LL         | AC     | 0        | 2587.6            | 2857.4         | +       | forward      | 2749.2         | +       | forward     
  675         | LG         | A      | 0        | 2117.3            | 2274.5         | +       | forward      | 2249.2         | +       | forward     
  675         | LG         | B      | 0        | 2160.3            | 2316.0         | +       | forward      | 2249.0         | +       | forward     
  675         | LG         | C      | 0        | 2052.0            | 2249.5         | +       | forward      | 2165.4         | +       | forward     
  675         | LG         | A      | 3        | 646.2             | 1128.0         | +       | forward      | 1054.5         | +       | forward     
  675         | LG         | B      | 3        | 711.3             | 1085.4         | +       | forward      | 890.3          | +       | forward     
  675         | LG         | C      | 3        | 640.4             | 1157.6         | +       | forward      | 1012.0         | +       | forward     
  680         | LLL        | ABC    | 0        | 2929.6            | 3005.5         | +       | forward      | 2975.6         | +       | forward     
  680         | LLG        | AB     | 0        | 2688.3            | 2872.2         | +       | forward      | 2832.9         | +       | forward     
  680         | LLG        | BC     | 0        | 2467.4            | 2621.7         | +       | forward      | 2539.2         | +       | forward     
  680         | LLG        | AC     | 0        | 2493.7            | 2667.8         | +       | forward      | 2571.0         | +       | forward     
  680         | LL         | AB     | 0        | 2574.5            | 2861.6         | +       | forward      | 2809.9         | +       | forward     
  680         | LL         | BC     | 0        | 2342.8            | 2553.6         | +       | forward      | 2436.2         | +       | forward     
  680         | LL         | AC     | 0        | 2394.5            | 2683.5         | +       | forward      | 2570.6         | +       | forward     
  680         | LG         | A      | 0        | 1820.7            | 1997.5         | +       | forward      | 1968.3         | +       | forward     
  680         | LG         | B      | 0        | 1861.1            | 2011.2         | +       | forward      | 1938.5         | +       | forward     
  680         | LG         | C      | 0        | 1766.5            | 1973.6         | +       | forward      | 1882.9         | +       | forward     
  680         | LG         | A      | 3        | 644.5             | 1129.9         | +       | forward      | 1056.4         | +       | forward     
  680         | LG         | B      | 3        | 701.5             | 1074.4         | +       | forward      | 878.5          | +       | forward     
  680         | LG         | C      | 3        | 635.5             | 1154.7         | +       | forward      | 1007.6         | +       | forward     
  684         | LLG        | AC     | 0        | 2655.3            | 2835.5         | +       | forward      | 2744.5         | +       | forward     
  684         | LL         | AC     | 0        | 2540.4            | 2821.0         | +       | forward      | 2711.3         | +       | forward     
  684         | LG         | A      | 0        | 2076.2            | 2241.4         | +       | forward      | 2215.9         | +       | forward     
  684         | LG         | C      | 0        | 2008.8            | 2208.4         | +       | forward      | 2124.0         | +       | forward     
  684         | LG         | A      | 3        | 650.1             | 1134.1         | +       | forward      | 1060.8         | +       | forward     
  684         | LG         | C      | 3        | 640.3             | 1158.9         | +       | forward      | 1013.0         | +       | forward     
  652         | LG         | A      | 0        | 1873.7            | 2093.8         | +       | forward      | 2058.7         | +       | forward     
  652         | LG         | A      | 3        | 617.2             | 1102.4         | +       | forward      | 1028.3         | +       | forward     
  611         | LG         | C      | 0        | 1857.2            | 2084.5         | +       | forward      | 1991.4         | +       | forward     
  611         | LG         | C      | 3        | 622.7             | 1141.7         | +       | forward      | 994.8          | +       | forward     
  DL          | LLL        | ABC    | 0        | 3946.4            | 3959.0         | +       | forward      | 1.4            | +       | forward     
  DL          | LLG        | AB     | 0        | 3649.9            | 3769.7         | +       | forward      | 403.2          | +       | forward     
  DL          | LLG        | BC     | 0        | 3398.3            | 3503.5         | +       | forward      | 496.5          | +       | forward     
  DL          | LLG        | AC     | 0        | 3412.7            | 3538.2         | +       | forward      | 166.0          | +       | forward     
  DL          | LL         | AB     | 0        | 3452.5            | 3696.0         | +       | forward      | 408.4          | +       | forward     
  DL          | LL         | BC     | 0        | 3201.8            | 3369.8         | +       | forward      | 478.1          | +       | forward     
  DL          | LL         | AC     | 0        | 3258.6            | 3496.4         | +       | forward      | 219.0          | +       | forward     
  DL          | LG         | A      | 0        | 2666.5            | 2785.8         | +       | forward      | 393.1          | +       | forward     
  DL          | LG         | B      | 0        | 2695.1            | 2796.5         | +       | forward      | 481.5          | +       | forward     
  DL          | LG         | C      | 0        | 2602.0            | 2744.6         | +       | forward      | 485.8          | +       | forward     
  DL          | LG         | A      | 3        | 703.9             | 1193.5         | +       | forward      | 433.2          | +       | forward     
  DL          | LG         | B      | 3        | 752.1             | 1125.1         | +       | forward      | 461.2          | +       | forward     
  DL          | LG         | C      | 3        | 697.1             | 1219.5         | +       | forward      | 471.1          | +       | forward     
Currents are the largest phase value. 'no current' = below 1 A (no source behind the recloser for this fault).

If,max at each fault location, without DG (bolted, largest of the applicable fault types):
  Bus | If,max (A) | Fault type | Faulted phases | R1 (A)  | R2 (A)  | Comment                                                                                         
  ----+------------+------------+----------------+---------+---------+-------------------------------------------------------------------------------------------------
...